[root]
type=Root
children=system
eventq_index=0
full_system=false
sim_quantum=0
time_sync_enable=false
time_sync_period=100000000000
time_sync_spin_threshold=100000000

[system]
type=System
children=clk_domain cpu cpu_clk_domain cpu_voltage_domain dvfs_handler l2 mem_ctrls membus pim_kernerls tol2bus voltage_domain
boot_osflags=a
cache_line_size=64
clk_domain=system.clk_domain
default_p_state=UNDEFINED
eventq_index=0
exit_on_work_items=false
init_param=0
kernel=
kernel_addr_check=true
kernel_extras=
kvm_vm=Null
load_addr_mask=18446744073709551615
load_offset=0
mem_mode=timing
mem_ranges=0:536870911:0:0:0:0
memories=system.mem_ctrls
mmap_using_noreserve=false
multi_thread=false
num_work_ids=16
p_state_clk_gate_bins=20
p_state_clk_gate_max=1000000000000
p_state_clk_gate_min=1000
pim_kernerls=system.pim_kernerls
pim_type=kernel
power_model=
readfile=
symbolfile=
thermal_components=
thermal_model=Null
work_begin_ckpt_count=0
work_begin_cpu_id_exit=-1
work_begin_exit_count=0
work_cpus_ckpt_count=0
work_end_ckpt_count=0
work_end_exit_count=0
work_item_id=-1
system_port=system.membus.slave[3]

[system.clk_domain]
type=SrcClockDomain
clock=1000
domain_id=-1
eventq_index=0
init_perf_level=0
voltage_domain=system.voltage_domain

[system.cpu]
type=TimingSimpleCPU
children=apic_clk_domain dcache dtb dtb_walker_cache icache interrupts isa itb itb_walker_cache tracer workload
branchPred=Null
checker=Null
clk_domain=system.cpu_clk_domain
cpu_id=0
default_p_state=UNDEFINED
do_checkpoint_insts=true
do_quiesce=true
do_statistics_insts=true
dtb=system.cpu.dtb
eventq_index=0
function_trace=false
function_trace_start=0
host_id=-1
interrupts=system.cpu.interrupts
isa=system.cpu.isa
ispim=false
itb=system.cpu.itb
max_insts_all_threads=0
max_insts_any_thread=0
max_loads_all_threads=0
max_loads_any_thread=0
numThreads=1
p_state_clk_gate_bins=20
p_state_clk_gate_max=1000000000000
p_state_clk_gate_min=1000
pim_base_addr=536870912
power_gating_on_idle=false
power_model=
profile=0
progress_interval=0
pwr_gating_latency=300
simpoint_start_insts=
socket_id=0
switched_out=false
syscallRetryLatency=10000
system=system
total_host_cpu=1
tracer=system.cpu.tracer
wait_for_remote_gdb=false
workload=system.cpu.workload
dcache_port=system.cpu.dcache.cpu_side
icache_port=system.cpu.icache.cpu_side

[system.cpu.apic_clk_domain]
type=DerivedClockDomain
clk_divider=16
clk_domain=system.cpu_clk_domain
eventq_index=0

[system.cpu.dcache]
type=Cache
children=replacement_policy tags
addr_ranges=0:18446744073709551615:0:0:0:0
assoc=4
clk_domain=system.cpu_clk_domain
clusivity=mostly_incl
data_latency=2
default_p_state=UNDEFINED
demand_mshr_reserve=1
eventq_index=0
is_read_only=false
max_miss_count=0
mshrs=4
p_state_clk_gate_bins=20
p_state_clk_gate_max=1000000000000
p_state_clk_gate_min=1000
power_model=
prefetch_on_access=false
prefetcher=Null
replacement_policy=system.cpu.dcache.replacement_policy
response_latency=2
sequential_access=false
size=32768
system=system
tag_latency=2
tags=system.cpu.dcache.tags
tgts_per_mshr=20
warmup_percentage=0
write_allocator=Null
write_buffers=8
writeback_clean=false
cpu_side=system.cpu.dcache_port
mem_side=system.tol2bus.slave[1]

[system.cpu.dcache.replacement_policy]
type=LRURP
eventq_index=0

[system.cpu.dcache.tags]
type=BaseSetAssoc
children=indexing_policy
assoc=4
block_size=64
clk_domain=system.cpu_clk_domain
default_p_state=UNDEFINED
entry_size=64
eventq_index=0
indexing_policy=system.cpu.dcache.tags.indexing_policy
p_state_clk_gate_bins=20
p_state_clk_gate_max=1000000000000
p_state_clk_gate_min=1000
power_model=
replacement_policy=system.cpu.dcache.replacement_policy
sequential_access=false
size=32768
system=system
tag_latency=2
warmup_percentage=0

[system.cpu.dcache.tags.indexing_policy]
type=SetAssociative
assoc=4
entry_size=64
eventq_index=0
size=32768

[system.cpu.dtb]
type=X86TLB
children=walker
eventq_index=0
size=64
walker=system.cpu.dtb.walker

[system.cpu.dtb.walker]
type=X86PagetableWalker
clk_domain=system.cpu_clk_domain
default_p_state=UNDEFINED
eventq_index=0
num_squash_per_cycle=4
p_state_clk_gate_bins=20
p_state_clk_gate_max=1000000000000
p_state_clk_gate_min=1000
power_model=
system=system
port=system.cpu.dtb_walker_cache.cpu_side

[system.cpu.dtb_walker_cache]
type=Cache
children=replacement_policy tags
addr_ranges=0:18446744073709551615:0:0:0:0
assoc=2
clk_domain=system.cpu_clk_domain
clusivity=mostly_incl
data_latency=2
default_p_state=UNDEFINED
demand_mshr_reserve=1
eventq_index=0
is_read_only=false
max_miss_count=0
mshrs=10
p_state_clk_gate_bins=20
p_state_clk_gate_max=1000000000000
p_state_clk_gate_min=1000
power_model=
prefetch_on_access=false
prefetcher=Null
replacement_policy=system.cpu.dtb_walker_cache.replacement_policy
response_latency=2
sequential_access=false
size=1024
system=system
tag_latency=2
tags=system.cpu.dtb_walker_cache.tags
tgts_per_mshr=12
warmup_percentage=0
write_allocator=Null
write_buffers=8
writeback_clean=false
cpu_side=system.cpu.dtb.walker.port
mem_side=system.tol2bus.slave[3]

[system.cpu.dtb_walker_cache.replacement_policy]
type=LRURP
eventq_index=0

[system.cpu.dtb_walker_cache.tags]
type=BaseSetAssoc
children=indexing_policy
assoc=2
block_size=64
clk_domain=system.cpu_clk_domain
default_p_state=UNDEFINED
entry_size=64
eventq_index=0
indexing_policy=system.cpu.dtb_walker_cache.tags.indexing_policy
p_state_clk_gate_bins=20
p_state_clk_gate_max=1000000000000
p_state_clk_gate_min=1000
power_model=
replacement_policy=system.cpu.dtb_walker_cache.replacement_policy
sequential_access=false
size=1024
system=system
tag_latency=2
warmup_percentage=0

[system.cpu.dtb_walker_cache.tags.indexing_policy]
type=SetAssociative
assoc=2
entry_size=64
eventq_index=0
size=1024

[system.cpu.icache]
type=Cache
children=replacement_policy tags
addr_ranges=0:18446744073709551615:0:0:0:0
assoc=4
clk_domain=system.cpu_clk_domain
clusivity=mostly_incl
data_latency=2
default_p_state=UNDEFINED
demand_mshr_reserve=1
eventq_index=0
is_read_only=true
max_miss_count=0
mshrs=4
p_state_clk_gate_bins=20
p_state_clk_gate_max=1000000000000
p_state_clk_gate_min=1000
power_model=
prefetch_on_access=false
prefetcher=Null
replacement_policy=system.cpu.icache.replacement_policy
response_latency=2
sequential_access=false
size=32768
system=system
tag_latency=2
tags=system.cpu.icache.tags
tgts_per_mshr=20
warmup_percentage=0
write_allocator=Null
write_buffers=8
writeback_clean=true
cpu_side=system.cpu.icache_port
mem_side=system.tol2bus.slave[0]

[system.cpu.icache.replacement_policy]
type=LRURP
eventq_index=0

[system.cpu.icache.tags]
type=BaseSetAssoc
children=indexing_policy
assoc=4
block_size=64
clk_domain=system.cpu_clk_domain
default_p_state=UNDEFINED
entry_size=64
eventq_index=0
indexing_policy=system.cpu.icache.tags.indexing_policy
p_state_clk_gate_bins=20
p_state_clk_gate_max=1000000000000
p_state_clk_gate_min=1000
power_model=
replacement_policy=system.cpu.icache.replacement_policy
sequential_access=false
size=32768
system=system
tag_latency=2
warmup_percentage=0

[system.cpu.icache.tags.indexing_policy]
type=SetAssociative
assoc=4
entry_size=64
eventq_index=0
size=32768

[system.cpu.interrupts]
type=X86LocalApic
clk_domain=system.cpu.apic_clk_domain
default_p_state=UNDEFINED
eventq_index=0
int_latency=1000
p_state_clk_gate_bins=20
p_state_clk_gate_max=1000000000000
p_state_clk_gate_min=1000
pim=false
pio_addr=2305843009213693952
pio_latency=100000
power_model=
system=system
int_master=system.membus.slave[2]
int_slave=system.membus.master[3]
pio=system.membus.master[2]

[system.cpu.isa]
type=X86ISA
eventq_index=0

[system.cpu.itb]
type=X86TLB
children=walker
eventq_index=0
size=64
walker=system.cpu.itb.walker

[system.cpu.itb.walker]
type=X86PagetableWalker
clk_domain=system.cpu_clk_domain
default_p_state=UNDEFINED
eventq_index=0
num_squash_per_cycle=4
p_state_clk_gate_bins=20
p_state_clk_gate_max=1000000000000
p_state_clk_gate_min=1000
power_model=
system=system
port=system.cpu.itb_walker_cache.cpu_side

[system.cpu.itb_walker_cache]
type=Cache
children=replacement_policy tags
addr_ranges=0:18446744073709551615:0:0:0:0
assoc=2
clk_domain=system.cpu_clk_domain
clusivity=mostly_incl
data_latency=2
default_p_state=UNDEFINED
demand_mshr_reserve=1
eventq_index=0
is_read_only=false
max_miss_count=0
mshrs=10
p_state_clk_gate_bins=20
p_state_clk_gate_max=1000000000000
p_state_clk_gate_min=1000
power_model=
prefetch_on_access=false
prefetcher=Null
replacement_policy=system.cpu.itb_walker_cache.replacement_policy
response_latency=2
sequential_access=false
size=1024
system=system
tag_latency=2
tags=system.cpu.itb_walker_cache.tags
tgts_per_mshr=12
warmup_percentage=0
write_allocator=Null
write_buffers=8
writeback_clean=false
cpu_side=system.cpu.itb.walker.port
mem_side=system.tol2bus.slave[2]

[system.cpu.itb_walker_cache.replacement_policy]
type=LRURP
eventq_index=0

[system.cpu.itb_walker_cache.tags]
type=BaseSetAssoc
children=indexing_policy
assoc=2
block_size=64
clk_domain=system.cpu_clk_domain
default_p_state=UNDEFINED
entry_size=64
eventq_index=0
indexing_policy=system.cpu.itb_walker_cache.tags.indexing_policy
p_state_clk_gate_bins=20
p_state_clk_gate_max=1000000000000
p_state_clk_gate_min=1000
power_model=
replacement_policy=system.cpu.itb_walker_cache.replacement_policy
sequential_access=false
size=1024
system=system
tag_latency=2
warmup_percentage=0

[system.cpu.itb_walker_cache.tags.indexing_policy]
type=SetAssociative
assoc=2
entry_size=64
eventq_index=0
size=1024

[system.cpu.tracer]
type=ExeTracer
eventq_index=0

[system.cpu.workload]
type=Process
cmd=./tests/test-progs/pim-hello/hellopim
cwd=/home/xuchen/newpim/PIMSim/GEM5Simulation/gem5
drivers=
egid=100
env=
errout=cerr
euid=100
eventq_index=0
executable=./tests/test-progs/pim-hello/hellopim
gid=100
input=cin
kvmInSE=false
maxStackSize=67108864
output=cout
pgid=100
pid=100
ppid=0
simpoint=0
system=system
uid=100
useArchPT=false

[system.cpu_clk_domain]
type=SrcClockDomain
clock=500
domain_id=-1
eventq_index=0
init_perf_level=0
voltage_domain=system.cpu_voltage_domain

[system.cpu_voltage_domain]
type=VoltageDomain
eventq_index=0
voltage=1.0

[system.dvfs_handler]
type=DVFSHandler
domains=
enable=false
eventq_index=0
sys_clk_domain=system.clk_domain
transition_latency=100000000

[system.l2]
type=Cache
children=replacement_policy tags
addr_ranges=0:18446744073709551615:0:0:0:0
assoc=8
clk_domain=system.cpu_clk_domain
clusivity=mostly_incl
data_latency=20
default_p_state=UNDEFINED
demand_mshr_reserve=1
eventq_index=0
is_read_only=false
max_miss_count=0
mshrs=20
p_state_clk_gate_bins=20
p_state_clk_gate_max=1000000000000
p_state_clk_gate_min=1000
power_model=
prefetch_on_access=false
prefetcher=Null
replacement_policy=system.l2.replacement_policy
response_latency=20
sequential_access=false
size=2097152
system=system
tag_latency=20
tags=system.l2.tags
tgts_per_mshr=12
warmup_percentage=0
write_allocator=Null
write_buffers=8
writeback_clean=false
cpu_side=system.tol2bus.master[0]
mem_side=system.membus.slave[1]

[system.l2.replacement_policy]
type=LRURP
eventq_index=0

[system.l2.tags]
type=BaseSetAssoc
children=indexing_policy
assoc=8
block_size=64
clk_domain=system.cpu_clk_domain
default_p_state=UNDEFINED
entry_size=64
eventq_index=0
indexing_policy=system.l2.tags.indexing_policy
p_state_clk_gate_bins=20
p_state_clk_gate_max=1000000000000
p_state_clk_gate_min=1000
power_model=
replacement_policy=system.l2.replacement_policy
sequential_access=false
size=2097152
system=system
tag_latency=20
warmup_percentage=0

[system.l2.tags.indexing_policy]
type=SetAssociative
assoc=8
entry_size=64
eventq_index=0
size=2097152

[system.mem_ctrls]
type=DRAMCtrl
IDD0=0.055
IDD02=0.0
IDD2N=0.032
IDD2N2=0.0
IDD2P0=0.0
IDD2P02=0.0
IDD2P1=0.032
IDD2P12=0.0
IDD3N=0.038
IDD3N2=0.0
IDD3P0=0.0
IDD3P02=0.0
IDD3P1=0.038
IDD3P12=0.0
IDD4R=0.157
IDD4R2=0.0
IDD4W=0.125
IDD4W2=0.0
IDD5=0.235
IDD52=0.0
IDD6=0.02
IDD62=0.0
VDD=1.5
VDD2=0.0
activation_limit=4
addr_mapping=RoRaBaCoCh
bank_groups_per_rank=0
banks_per_rank=8
burst_length=8
channels=1
clk_domain=system.clk_domain
coherence_granularity=64
conf_table_reported=true
cpu_type=TimingSimpleCPU
default_p_state=UNDEFINED
device_bus_width=8
device_rowbuffer_size=1024
device_size=536870912
devices_per_rank=8
dll=true
eventq_index=0
in_addr_map=true
kvm_map=true
max_accesses_per_row=16
mem_sched_policy=frfcfs
min_writes_per_switch=16
null=false
p_state_clk_gate_bins=20
p_state_clk_gate_max=1000000000000
p_state_clk_gate_min=1000
page_policy=open_adaptive
power_model=
qos_masters=               
qos_policy=Null
qos_priorities=1
qos_priority_escalation=false
qos_q_policy=fifo
qos_syncro_scheduler=false
qos_turnaround_policy=Null
range=0:536870911:6:19:0:0
ranks_per_channel=1
read_buffer_size=32
static_backend_latency=10000
static_frontend_latency=10000
tBURST=5000
tCCD_L=0
tCCD_L_WR=0
tCK=1250
tCL=13750
tCS=2500
tRAS=35000
tRCD=13750
tREFI=7800000
tRFC=260000
tRP=13750
tRRD=6000
tRRD_L=0
tRTP=7500
tRTW=2500
tWR=15000
tWTR=7500
tXAW=30000
tXP=6000
tXPDLL=0
tXS=270000
tXSDLL=0
write_buffer_size=64
write_high_thresh_perc=85
write_low_thresh_perc=50
port=system.membus.master[1]

[system.membus]
type=NoncoherentXBar
clk_domain=system.clk_domain
default_p_state=UNDEFINED
eventq_index=0
forward_latency=1
frontend_latency=2
p_state_clk_gate_bins=20
p_state_clk_gate_max=1000000000000
p_state_clk_gate_min=1000
power_model=
response_latency=2
use_default_range=false
width=16
master=system.pim_kernerls.mem_port system.mem_ctrls.port system.cpu.interrupts.pio system.cpu.interrupts.int_slave
slave=system.pim_kernerls.port system.l2.mem_side system.cpu.interrupts.int_master system.system_port

[system.pim_kernerls]
type=PIMAdder
children=clk_domain
addr_base=536870912
addr_ranges=536870912:536870912:0:0:0:0
clk_domain=system.pim_kernerls.clk_domain
default_p_state=UNDEFINED
eventq_index=0
id=0
input=2
latency=1000
output=1
p_state_clk_gate_bins=20
p_state_clk_gate_max=1000000000000
p_state_clk_gate_min=1000
power_model=
mem_port=system.membus.master[0]
port=system.membus.slave[0]

[system.pim_kernerls.clk_domain]
type=SrcClockDomain
children=voltage_domain
clock=1000
domain_id=-1
eventq_index=0
init_perf_level=0
voltage_domain=system.pim_kernerls.clk_domain.voltage_domain

[system.pim_kernerls.clk_domain.voltage_domain]
type=VoltageDomain
eventq_index=0
voltage=1.0

[system.tol2bus]
type=CoherentXBar
children=snoop_filter
clk_domain=system.cpu_clk_domain
default_p_state=UNDEFINED
eventq_index=0
forward_latency=0
frontend_latency=1
p_state_clk_gate_bins=20
p_state_clk_gate_max=1000000000000
p_state_clk_gate_min=1000
point_of_coherency=false
point_of_unification=true
power_model=
response_latency=1
snoop_filter=system.tol2bus.snoop_filter
snoop_response_latency=1
system=system
use_default_range=false
width=32
master=system.l2.cpu_side
slave=system.cpu.icache.mem_side system.cpu.dcache.mem_side system.cpu.itb_walker_cache.mem_side system.cpu.dtb_walker_cache.mem_side

[system.tol2bus.snoop_filter]
type=SnoopFilter
eventq_index=0
lookup_latency=0
max_capacity=8388608
system=system

[system.voltage_domain]
type=VoltageDomain
eventq_index=0
voltage=1.0

